Info: SIMULATION PARAMETERS:
Info: TIMESTEP               2
Info: NUMBER OF STEPS        0
Info: STEPS PER CYCLE        20
Info: PERIODIC CELL BASIS 1  54.844 0 0
Info: PERIODIC CELL BASIS 2  0 93.774 0
Info: PERIODIC CELL BASIS 3  0 0 46.734
Info: PERIODIC CELL CENTER   11.7031 24.0667 7.26685
Info: WRAPPING WATERS AROUND PERIODIC BOUNDARIES ON OUTPUT.
Info: WRAPPING ALL CLUSTERS AROUND PERIODIC BOUNDARIES ON OUTPUT.
Info: FIRST LDB TIMESTEP     100
Info: LAST LDB TIMESTEP     -1
Info: HOM BACKGROUND SCALING 1
Info: MIN ATOMS PER PATCH    40
Info: VELOCITY FILE          myoutput.restart.vel
Info: CENTER OF MASS MOVING INITIALLY? NO
Info: DIELECTRIC             1
Info: EXCLUDE                SCALED ONE-FOUR
Info: 1-4 ELECTROSTATICS SCALED BY 1
Info: MODIFIED 1-4 VDW PARAMETERS WILL BE USED
Info: DCD FILENAME           nvt.dcd
Info: DCD FREQUENCY          500
Info: DCD FIRST STEP         500
Info: DCD FILE WILL CONTAIN UNIT CELL DATA
Info: XST FILENAME           nvt.xst
Info: XST FREQUENCY          500
Info: NO VELOCITY DCD OUTPUT
Info: NO FORCE DCD OUTPUT
Info: OUTPUT FILENAME        nvt
Info: BINARY OUTPUT FILES WILL BE USED
Info: RESTART FILENAME       nvt.restart
Info: RESTART FREQUENCY      500
Info: BINARY RESTART FILES WILL BE USED
Info: SWITCHING ACTIVE
Info: SWITCHING ON           10
Info: SWITCHING OFF          12
Info: PAIRLIST DISTANCE      14
Info: PAIRLIST SHRINK RATE   0.01
Info: PAIRLIST GROW RATE     0.01
Info: PAIRLIST TRIGGER       0.3
Info: PAIRLISTS PER CYCLE    2
Info: PAIRLISTS ENABLED
Info: MARGIN                 0.495
Info: HYDROGEN GROUP CUTOFF  2.5
Info: PATCH DIMENSION        16.995
Info: ENERGY OUTPUT STEPS    100
Info: CROSSTERM ENERGY INCLUDED IN DIHEDRAL
Info: TIMING OUTPUT STEPS    1000
Info: LANGEVIN DYNAMICS ACTIVE
Info: LANGEVIN TEMPERATURE   310
Info: LANGEVIN USING BBK INTEGRATOR
Info: LANGEVIN DAMPING COEFFICIENT IS 1 INVERSE PS
Info: LANGEVIN DYNAMICS NOT APPLIED TO HYDROGENS
Info: LANGEVIN PISTON PRESSURE CONTROL ACTIVE
Info:        TARGET PRESSURE IS 1.01325 BAR
Info:     OSCILLATION PERIOD IS 100 FS
Info:             DECAY TIME IS 50 FS
Info:     PISTON TEMPERATURE IS 310 K
Info:       PRESSURE CONTROL IS GROUP-BASED
Info:    INITIAL STRAIN RATE IS 0 0 0
Info:       CELL FLUCTUATION IS ISOTROPIC
Info: USING VERLET I (r-RESPA) MTS SCHEME.
Info: C1 SPLITTING OF LONG RANGE ELECTROSTATICS
Info: PLACING ATOMS IN PATCHES BY HYDROGEN GROUPS
Info: RIGID BONDS TO HYDROGEN : ALL
Info:         ERROR TOLERANCE : 1e-008
Info:          MAX ITERATIONS : 100
Info: RIGID WATER USING SETTLE ALGORITHM
Info: RANDOM NUMBER SEED     1519709161
Info: USE HYDROGEN BONDS?    NO
Info: COORDINATE PDB         solvate.pdb
Info: STRUCTURE FILE         solvate.psf
Info: PARAMETER file: CHARMM format!
Info: PARAMETERS             par_all27_prot_lipid.inp
Info: USING ARITHMETIC MEAN TO COMBINE L-J SIGMA PARAMETERS
Info: BINARY COORDINATES     myoutput.restart.coor
Info: SUMMARY OF PARAMETERS:
Info: 180 BONDS
Info: 447 ANGLES
Info: 566 DIHEDRAL
Info: 46 IMPROPER
Info: 6 CROSSTERM
Info: 119 VDW
Info: 0 VDW_PAIRS
Info: 0 NBTHOLE_PAIRS
Info:
Info: STRUCTURE SUMMARY:
Info: 22837 ATOMS
Info: 16512 BONDS
Info: 13217 ANGLES
Info: 9998 DIHEDRALS
Info: 587 IMPROPERS
Info: 222 CROSSTERMS
Info: 0 EXCLUSIONS
Info: 20994 RIGID BONDS
Info: 47517 DEGREES OF FREEDOM
Info: 8212 HYDROGEN GROUPS
Info: 4 ATOMS IN LARGEST HYDROGEN GROUP
Info: 8212 MIGRATION GROUPS
Info: 4 ATOMS IN LARGEST MIGRATION GROUP
Info: TOTAL MASS = 141042 amu
Info: TOTAL CHARGE = 13 e
Info: MASS DENSITY = 0.97446 g/cm^3
Info: ATOM DENSITY = 0.0950155 atoms/A^3
Info:
Info: ADDED 39549 IMPLICIT EXCLUSIONS
Info: NONBONDED TABLE R-SQUARED SPACING: 0.0625
Info: NONBONDED TABLE SIZE: 769 POINTS
Info: REMOVING COM VELOCITY 0.0571499 -0.0546607 -0.0171758
TCL: Running for 5000 steps
ETITLE: TS BOND ANGLE DIHED IMPRP ELECT VDW BOUNDARY MISC KINETIC TOTAL TEMP POTENTIAL TOTAL3 TEMPAVG PRESSURE GPRESSURE VOLUME PRESSAVG GPRESSAVG
ENERGY: 0 734.4830 2167.6254 896.4056 104.7619 -74789.6612 4870.8732 0.0000 0.0000 14658.6294 -51356.8824 310.4808 -66015.5119 -51296.9458 310.4808 -143.7695 -144.6623 240350.2210 -143.7695 -144.6623
ENERGY: 1000 757.0190 2194.0937 920.3059 121.9935 -77488.0455 4955.6040 0.0000 0.0000 15449.7951 -53089.2343 327.2383 -68539.0294 -53030.8719 326.4184 -204.4454 -207.2024 227488.5216 0.9009 0.7869
ENERGY: 2000 729.6727 2190.7022 935.1947 113.0004 -78728.6798 5445.6738 0.0000 0.0000 15036.3449 -54278.0910 318.4811 -69314.4360 -54215.2180 317.8161 6.3821 9.1122 224358.2409 -17.8229 -17.4457
ENERGY: 3000 728.4791 2204.8750 921.1468 124.6623 -79120.8217 5451.8717 0.0000 0.0000 14730.8931 -54958.8936 312.0114 -69689.7868 -54902.0660 314.9291 16.1022 7.7043 222992.9322 -15.1896 -15.0174
ENERGY: 4000 735.3545 2199.2566 935.8311 112.3098 -79515.9310 5482.6655 0.0000 0.0000 14933.5912 -55116.9222 316.3047 -70050.5135 -55058.4672 313.3041 129.6257 113.8470 223164.6775 11.1703 11.0778
ENERGY: 5000 787.6954 2129.7488 953.5885 121.4718 -79579.9184 5348.9887 0.0000 0.0000 14904.5007 -55333.9245 315.6885 -70238.4252 -55275.9296 312.4210 -391.8381 -390.3711 222036.8878 0.0299 0.2789
